extensions/iidm/resources/generatorStartupRef-1.0.xml
<?xml version="1.0" encoding="UTF-8"?>
<iidm:network xmlns:iidm="http://www.powsybl.org/schema/iidm/1_16" xmlns:gs="http://www.powsybl.org/schema/iidm/ext/generator_startup/1_0" id="test" caseDate="2016-06-27T12:27:58+02:00" forecastDistance="0" sourceFormat="test" minimumValidationLevel="STEADY_STATE_HYPOTHESIS">
    <iidm:substation id="S" country="FR">
        <iidm:voltageLevel id="VL" nominalV="400" topologyKind="BUS_BREAKER">
            <iidm:busBreakerTopology>
                <iidm:bus id="B"/>
            </iidm:busBreakerTopology>
            <iidm:generator id="G" energySource="OTHER" minP="0" maxP="100" voltageRegulatorOn="true" targetP="100" targetV="380" bus="B" connectableBus="B">
                <iidm:minMaxReactiveLimits minQ="-1.7976931348623157e+308" maxQ="1.7976931348623157e+308"/>
            </iidm:generator>
        </iidm:voltageLevel>
    </iidm:substation>
    <iidm:extension id="G">
        <gs:startup predefinedActivePowerSetpoint="90" startUpCost="5" marginalCost="10" plannedOutageRate="0.80000000000000004" forcedOutageRate="0.69999999999999996"/>
    </iidm:extension>
</iidm:network>
